Version 4
SHEET 1 3140 2500
WIRE 624 64 480 64
WIRE 800 64 624 64
WIRE 912 64 880 64
WIRE 944 64 912 64
WIRE 1072 64 1008 64
WIRE 1264 64 1072 64
WIRE 272 80 64 80
WIRE 416 80 272 80
WIRE 480 80 480 64
WIRE 624 80 624 64
WIRE 64 112 64 80
WIRE -752 128 -912 128
WIRE -480 128 -672 128
WIRE -368 128 -480 128
WIRE 272 128 272 80
WIRE 1072 128 1072 64
WIRE 416 176 416 80
WIRE 480 176 480 144
WIRE 480 176 416 176
WIRE 912 176 912 64
WIRE -1232 192 -1232 160
WIRE -1200 192 -1232 192
WIRE 624 192 624 144
WIRE 624 192 400 192
WIRE 480 208 480 176
WIRE 624 208 624 192
WIRE -368 240 -368 192
WIRE 64 256 64 192
WIRE 176 256 64 256
WIRE 272 256 272 208
WIRE 272 256 176 256
WIRE 400 256 400 192
WIRE 400 256 272 256
WIRE 864 256 816 256
WIRE 176 272 176 256
WIRE 480 304 480 272
WIRE 624 304 624 272
WIRE 624 304 480 304
WIRE 704 304 624 304
WIRE 912 304 912 272
WIRE 912 304 704 304
WIRE 1072 304 1072 192
WIRE 1072 304 912 304
WIRE -1232 320 -1232 192
WIRE -1184 320 -1232 320
WIRE 704 320 704 304
WIRE -1184 352 -1184 320
WIRE -912 368 -912 128
WIRE -912 368 -960 368
WIRE -880 368 -912 368
WIRE -480 368 -480 128
WIRE -480 368 -560 368
WIRE -1184 464 -1184 432
WIRE -1184 464 -1200 464
WIRE -880 464 -1184 464
WIRE -928 560 -960 560
WIRE -880 560 -928 560
WIRE -544 560 -560 560
WIRE -880 656 -1040 656
WIRE -720 736 -720 704
WIRE 960 816 960 800
WIRE 224 864 144 864
WIRE 320 864 224 864
WIRE 896 864 864 864
WIRE 864 896 864 864
WIRE -16 912 -64 912
WIRE 80 912 64 912
WIRE 1040 912 960 912
WIRE 864 960 864 896
WIRE 896 960 864 960
WIRE -64 992 -64 912
WIRE 144 992 144 960
WIRE 960 1024 960 1008
WIRE -1248 1248 -1248 1216
FLAG -64 1072 0
FLAG 704 320 0
FLAG 1264 64 Vout
FLAG 144 992 0
FLAG 224 784 Vout
FLAG 1120 912 TotemOut
FLAG 1040 800 Vout
FLAG 864 896 PWMIncreasedOut
FLAG 624 64 RectOut
FLAG 960 1024 0
FLAG 816 256 TotemOut
FLAG 400 864 PWMIncreasedOut
FLAG -1248 1328 0
FLAG -1248 1136 TotemOutIdeal
FLAG -848 1248 VoutIdeal
FLAG -848 1328 0
FLAG -432 1328 0
FLAG -432 1248 3v3Source
FLAG -928 624 0
FLAG -1040 560 PWMOut
FLAG -368 240 0
FLAG -1040 368 0
FLAG -1280 464 0
FLAG -1136 192 0
FLAG -1232 80 none
FLAG -720 320 DriverIn
FLAG -1232 320 DriverIn
FLAG -1120 656 0
FLAG -720 736 0
FLAG -544 560 0
FLAG -480 464 FetDriverOut
SYMBOL diode 496 144 R180
WINDOW 0 24 64 Left 2
WINDOW 3 24 0 Left 2
SYMATTR InstName D1
SYMBOL diode 640 144 R180
WINDOW 0 24 64 Left 2
WINDOW 3 24 0 Left 2
SYMATTR InstName D2
SYMBOL diode 496 272 R180
WINDOW 0 24 64 Left 2
WINDOW 3 24 0 Left 2
SYMATTR InstName D3
SYMBOL diode 640 272 R180
WINDOW 0 24 64 Left 2
WINDOW 3 24 0 Left 2
SYMATTR InstName D4
SYMBOL ind 784 80 R270
WINDOW 0 32 56 VTop 2
WINDOW 3 5 56 VBottom 2
SYMATTR InstName L1
SYMATTR Value 1m
SYMBOL voltage -64 976 R0
WINDOW 123 0 0 Left 0
WINDOW 39 0 0 Left 0
WINDOW 3 24 96 Invisible 2
SYMATTR InstName V2
SYMATTR Value PULSE(0 3.3 100n 100n 0 10u 20u)
SYMBOL npn 896 816 R0
SYMATTR InstName Q1
SYMBOL npn 80 864 R0
SYMATTR InstName Q3
SYMBOL diode 944 80 R270
WINDOW 0 32 32 VTop 2
WINDOW 3 0 32 VBottom 2
SYMATTR InstName D5
SYMBOL cap 1056 128 R0
SYMATTR InstName C2
SYMATTR Value 100µ
SYMBOL res 1136 896 R90
WINDOW 0 0 56 VBottom 2
WINDOW 3 32 56 VTop 2
SYMATTR InstName R1
SYMATTR Value 22
SYMBOL res 1056 784 R90
WINDOW 0 0 56 VBottom 2
WINDOW 3 32 56 VTop 2
SYMATTR InstName R4
SYMATTR Value 0.1
SYMBOL nmos 864 176 R0
SYMATTR InstName M1
SYMATTR Value FQP33N10
SYMATTR Prefix X
SYMBOL res 208 768 R0
SYMATTR InstName R3
SYMATTR Value 560
SYMBOL pnp 896 1008 M180
SYMATTR InstName Q4
SYMBOL current 64 192 R180
WINDOW 0 24 80 Left 2
WINDOW 3 24 0 Left 2
WINDOW 123 0 0 Left 0
WINDOW 39 0 0 Left 0
SYMATTR InstName I1
SYMATTR Value SINE(0 2 150k)
SYMBOL res 256 112 R0
SYMATTR InstName R13
SYMATTR Value 10k
SYMBOL res 416 848 R90
WINDOW 0 0 56 VBottom 2
WINDOW 3 32 56 VTop 2
SYMATTR InstName R14
SYMATTR Value 10k
SYMBOL res 80 896 R90
WINDOW 0 0 56 VBottom 2
WINDOW 3 32 56 VTop 2
SYMATTR InstName R2
SYMATTR Value 1k
SYMBOL voltage -1248 1232 R0
WINDOW 123 0 0 Left 0
WINDOW 39 0 0 Left 0
SYMATTR InstName V1
SYMATTR Value PULSE(0 20 0 0 0 1u 20u 10)
SYMBOL res -1264 1120 R0
SYMATTR InstName R5
SYMATTR Value 1k
SYMBOL voltage -848 1232 R0
WINDOW 123 0 0 Left 0
WINDOW 39 0 0 Left 0
SYMATTR InstName V3
SYMATTR Value PULSE(3 15 0 0 0 20u 20u 10)
SYMBOL voltage -432 1232 R0
WINDOW 123 0 0 Left 0
WINDOW 39 0 0 Left 0
SYMATTR InstName V4
SYMATTR Value 3.3
SYMBOL PowerProducts\\LTC4441 -720 512 R0
SYMATTR InstName U1
SYMBOL res -944 544 R90
WINDOW 0 0 56 VBottom 2
WINDOW 3 32 56 VTop 2
SYMATTR InstName R6
SYMATTR Value 10
SYMBOL cap -944 560 R0
SYMATTR InstName C1
SYMATTR Value 100p
SYMBOL res -944 352 R90
WINDOW 0 0 56 VBottom 2
WINDOW 3 32 56 VTop 2
SYMATTR InstName R7
SYMATTR Value 84.5k
SYMBOL res -656 112 R90
WINDOW 0 0 56 VBottom 2
WINDOW 3 32 56 VTop 2
SYMATTR InstName R8
SYMATTR Value 330k
SYMBOL cap -384 128 R0
SYMATTR InstName C3
SYMATTR Value 10µ
SYMBOL res -1184 448 R90
WINDOW 0 0 56 VBottom 2
WINDOW 3 32 56 VTop 2
SYMATTR InstName R9
SYMATTR Value 12.4k
SYMBOL res -1248 64 R0
SYMATTR InstName R10
SYMATTR Value 2.2
SYMBOL cap -1136 176 R90
WINDOW 0 0 32 VBottom 2
WINDOW 3 32 32 VTop 2
SYMATTR InstName C4
SYMATTR Value 0.1µ
SYMBOL res -1200 336 R0
SYMATTR InstName R11
SYMATTR Value 49.9k
SYMBOL res -1024 640 R90
WINDOW 0 0 56 VBottom 2
WINDOW 3 32 56 VTop 2
SYMATTR InstName R12
SYMATTR Value 10k
SYMBOL res -464 448 R90
WINDOW 0 0 56 VBottom 2
WINDOW 3 32 56 VTop 2
SYMATTR InstName R15
SYMATTR Value 2.2
TEXT 32 328 Left 2 !.tran 1m
TEXT 368 1344 Left 2 !.lib OptiMOS5_80V_LTSpice.lib
TEXT 1560 152 Left 2 ;3v3Source drives totem pole etc w/ mosfet fine, will this be okay or is it just simulation inaccuracy?
TEXT 1560 200 Left 2 ;VoutIdeal also drives totem pole etc w/ mosfet fine, but actual Vout causes simulation not to run (or take a very long time)
TEXT 368 1392 Left 2 !.lib FQP33N10.lib
TEXT 1560 288 Left 2 ;Voltage drops a lot when switch is on, capacitance not high enough?
TEXT 1560 336 Left 2 ;Tried changing capacitor values - no change
TEXT 1560 384 Left 2 ;Increased pwm frequency - less drop but higher voltage. If duty cycle is changed then the same drops still exist
TEXT 744 696 Left 2 ;Totem Pole - Boost Mosfet Gate Current
TEXT 112 624 Left 2 ;Fet Gate Voltage Booster
TEXT 2136 0 Left 5 ;Notes
TEXT 504 1224 Left 2 ;Additional Libraries
TEXT 520 -8 Left 2 ;Main Circuitry
TEXT 1568 464 Left 2 ;Ltspice crashes when Fet gate is connected to npn or totem
TEXT 1568 544 Left 2 ;Timestep error (too small) with mosfet?
TEXT 40 376 Left 2 !.ic V(Vout)=10
TEXT -912 992 Left 2 ;Ideal Sources
TEXT -864 -8 Left 2 ;Mosfet Driver
RECTANGLE Normal 928 1552 336 1200
RECTANGLE Normal 1392 432 -112 -32
RECTANGLE Normal 576 1104 -112 592
RECTANGLE Normal 1296 1056 688 640
RECTANGLE Normal 3136 1408 1488 -80
RECTANGLE Normal -240 1360 -1344 912
RECTANGLE Normal -240 816 -1360 -32
