Version 4
SHEET 1 1308 680
WIRE 624 64 480 64
WIRE 800 64 624 64
WIRE 912 64 880 64
WIRE 928 64 912 64
WIRE 1056 64 1024 64
WIRE 1152 64 1056 64
WIRE 1232 64 1152 64
WIRE 1248 64 1232 64
WIRE 272 80 64 80
WIRE 416 80 272 80
WIRE 480 80 480 64
WIRE 624 80 624 64
WIRE 64 112 64 80
WIRE 912 112 912 64
WIRE 272 128 272 80
WIRE 1056 144 1056 64
WIRE 1152 144 1152 64
WIRE 416 176 416 80
WIRE 480 176 480 144
WIRE 480 176 416 176
WIRE 624 192 624 144
WIRE 624 192 400 192
WIRE 784 192 752 192
WIRE 480 208 480 176
WIRE 624 208 624 192
WIRE 64 256 64 192
WIRE 176 256 64 256
WIRE 272 256 272 192
WIRE 272 256 176 256
WIRE 400 256 400 192
WIRE 400 256 272 256
WIRE 752 256 752 192
WIRE 816 256 752 256
WIRE 176 272 176 256
WIRE 480 304 480 272
WIRE 624 304 624 272
WIRE 624 304 480 304
WIRE 912 304 912 208
WIRE 912 304 624 304
WIRE 1056 304 1056 208
WIRE 1056 304 912 304
WIRE 1152 304 1152 208
WIRE 1152 304 1056 304
WIRE 1184 304 1152 304
WIRE 1232 352 1232 64
WIRE 1232 352 656 352
WIRE 656 384 656 352
WIRE 656 384 592 384
WIRE 736 384 656 384
WIRE 592 432 592 384
WIRE 672 432 640 432
WIRE 528 480 480 480
WIRE 816 480 816 256
WIRE 816 480 736 480
WIRE 640 528 640 432
WIRE 640 528 592 528
WIRE 672 528 640 528
WIRE 480 544 480 480
WIRE 736 592 736 576
FLAG 736 592 0
FLAG 480 624 0
FLAG 176 272 0
SYMBOL voltage 64 96 R0
WINDOW 123 0 0 Left 0
WINDOW 39 0 0 Left 0
SYMATTR InstName V1
SYMATTR Value SINE(0 8 150k 0 0 0 100)
SYMBOL cap 256 128 R0
SYMATTR InstName C1
SYMATTR Value 300p
SYMBOL diode 496 144 R180
WINDOW 0 24 64 Left 2
WINDOW 3 24 0 Left 2
SYMATTR InstName D1
SYMBOL diode 640 144 R180
WINDOW 0 24 64 Left 2
WINDOW 3 24 0 Left 2
SYMATTR InstName D2
SYMBOL diode 496 272 R180
WINDOW 0 24 64 Left 2
WINDOW 3 24 0 Left 2
SYMATTR InstName D3
SYMBOL diode 640 272 R180
WINDOW 0 24 64 Left 2
WINDOW 3 24 0 Left 2
SYMATTR InstName D4
SYMBOL ind 784 80 R270
WINDOW 0 32 56 VTop 2
WINDOW 3 5 56 VBottom 2
SYMATTR InstName L1
SYMATTR Value 1m
SYMBOL diode 928 80 R270
WINDOW 0 32 32 VTop 2
WINDOW 3 0 32 VBottom 2
SYMATTR InstName D5
SYMBOL cap 1040 144 R0
SYMATTR InstName C2
SYMATTR Value 10p
SYMBOL cap 1136 144 R0
SYMATTR InstName C3
SYMATTR Value 10p
SYMBOL res 880 176 R90
WINDOW 0 0 56 VBottom 2
WINDOW 3 32 56 VTop 2
SYMATTR InstName R1
SYMATTR Value 1k
SYMBOL voltage 480 528 R0
WINDOW 123 0 0 Left 0
WINDOW 39 0 0 Left 0
SYMATTR InstName V2
SYMATTR Value PULSE(0 3.3 0 0 0 10u 20u 100)
SYMBOL Infineon\\OptiMOS5\\NMOS_thermal5 864 112 R0
SYMATTR InstName U1
SYMATTR SpiceModel OptiMOS5_80V_LTSpice
SYMATTR Prefix OptiMOS5_80V_LTSpice
SYMBOL npn 672 384 R0
SYMATTR InstName Q1
SYMBOL pnp 672 480 R0
SYMATTR InstName Q2
SYMBOL npn 528 432 R0
SYMATTR InstName Q3
TEXT 30 324 Left 2 !.tran 10u
