Version 4
SHEET 1 3024 804
WIRE 624 64 480 64
WIRE 800 64 624 64
WIRE 912 64 880 64
WIRE 944 64 912 64
WIRE 1072 64 1008 64
WIRE 1152 64 1072 64
WIRE 1264 64 1152 64
WIRE 272 80 64 80
WIRE 416 80 272 80
WIRE 480 80 480 64
WIRE 624 80 624 64
WIRE 64 112 64 80
WIRE 272 128 272 80
WIRE 1072 128 1072 64
WIRE 1152 128 1152 64
WIRE 416 176 416 80
WIRE 480 176 480 144
WIRE 480 176 416 176
WIRE 912 176 912 64
WIRE 624 192 624 144
WIRE 624 192 400 192
WIRE 480 208 480 176
WIRE 624 208 624 192
WIRE 64 256 64 192
WIRE 176 256 64 256
WIRE 272 256 272 192
WIRE 272 256 176 256
WIRE 400 256 400 192
WIRE 400 256 272 256
WIRE 864 256 816 256
WIRE 176 272 176 256
WIRE 480 304 480 272
WIRE 624 304 624 272
WIRE 624 304 480 304
WIRE 912 304 912 272
WIRE 912 304 624 304
WIRE 1072 304 1072 192
WIRE 1072 304 912 304
WIRE 1152 304 1152 192
WIRE 1152 304 1072 304
WIRE 1312 416 1312 400
WIRE 1312 416 1232 416
WIRE 1232 448 1232 416
WIRE 256 544 256 528
WIRE 160 592 112 592
WIRE 192 592 160 592
WIRE 48 640 0 640
WIRE 336 640 256 640
WIRE 160 688 160 592
WIRE 192 688 160 688
WIRE 0 704 0 640
WIRE 112 720 112 688
WIRE 256 752 256 736
FLAG 256 752 0
FLAG 0 784 0
FLAG 176 272 0
FLAG 416 640 TotemOUT
FLAG 816 256 TotemOUT
FLAG 1232 528 0
FLAG 1312 320 FetInIdeal
FLAG 1264 64 Vout
FLAG 112 720 0
FLAG -640 624 VoutIdeal
FLAG -640 704 0
FLAG -384 512 0
FLAG -384 432 3v3Source
FLAG 160 512 VoutIdeal
FLAG 336 528 VoutIdeal
SYMBOL voltage 64 96 R0
WINDOW 123 0 0 Left 0
WINDOW 39 0 0 Left 0
SYMATTR InstName V1
SYMATTR Value SINE(0 8 150k 0 0 0 100)
SYMBOL cap 256 128 R0
SYMATTR InstName C1
SYMATTR Value 300p
SYMBOL diode 496 144 R180
WINDOW 0 24 64 Left 2
WINDOW 3 24 0 Left 2
SYMATTR InstName D1
SYMBOL diode 640 144 R180
WINDOW 0 24 64 Left 2
WINDOW 3 24 0 Left 2
SYMATTR InstName D2
SYMBOL diode 496 272 R180
WINDOW 0 24 64 Left 2
WINDOW 3 24 0 Left 2
SYMATTR InstName D3
SYMBOL diode 640 272 R180
WINDOW 0 24 64 Left 2
WINDOW 3 24 0 Left 2
SYMATTR InstName D4
SYMBOL ind 784 80 R270
WINDOW 0 32 56 VTop 2
WINDOW 3 5 56 VBottom 2
SYMATTR InstName L1
SYMATTR Value 1m
SYMBOL voltage 0 688 R0
WINDOW 123 0 0 Left 0
WINDOW 39 0 0 Left 0
SYMATTR InstName V2
SYMATTR Value PULSE(0 3.3 0 0 0 10u 20u 10)
SYMBOL npn 192 544 R0
SYMATTR InstName Q1
SYMBOL pnp 192 640 R0
SYMATTR InstName Q2
SYMBOL npn 48 592 R0
SYMATTR InstName Q3
SYMBOL diode 944 80 R270
WINDOW 0 32 32 VTop 2
WINDOW 3 0 32 VBottom 2
SYMATTR InstName D5
SYMBOL cap 1056 128 R0
SYMATTR InstName C2
SYMATTR Value 10p
SYMBOL res 432 624 R90
WINDOW 0 0 56 VBottom 2
WINDOW 3 32 56 VTop 2
SYMATTR InstName R1
SYMATTR Value 1k
SYMBOL voltage 1232 432 R0
WINDOW 123 0 0 Left 0
WINDOW 39 0 0 Left 0
SYMATTR InstName V3
SYMATTR Value PULSE(0 20 0 0 0 1u 20u 10)
SYMBOL res 1296 304 R0
SYMATTR InstName R2
SYMATTR Value 1k
SYMBOL res 144 496 R0
SYMATTR InstName R3
SYMATTR Value 1k
SYMBOL res 352 512 R90
WINDOW 0 0 56 VBottom 2
WINDOW 3 32 56 VTop 2
SYMATTR InstName R4
SYMATTR Value 1k
SYMBOL voltage -640 608 R0
WINDOW 123 0 0 Left 0
WINDOW 39 0 0 Left 0
SYMATTR InstName V4
SYMATTR Value PULSE(3 15 0 0 0 20u 20u 10)
SYMBOL voltage -384 416 R0
WINDOW 123 0 0 Left 0
WINDOW 39 0 0 Left 0
SYMATTR InstName V5
SYMATTR Value 3.3
SYMBOL nmos 864 176 R0
SYMATTR InstName M1
SYMATTR Value FQP33N10
SYMATTR Prefix X
SYMBOL cap 1136 128 R0
SYMATTR InstName C3
SYMATTR Value 10p
TEXT 32 328 Left 2 !.tran 100u
TEXT 1160 656 Left 2 !.lib OptiMOS5_80V_LTSpice.lib
TEXT 1568 152 Left 2 ;3v3Source drives totem pole etc w/ mosfet fine, will this be okay or is it just simulation inaccuracy?
TEXT 1592 240 Left 2 ;VoutIdeal also drives totem pole etc w/ mosfet fine, but actual Vout causes simulation not to run (or take a very long time)
TEXT 1176 720 Left 2 !.lib FQP33N10.lib
TEXT 1600 312 Left 2 ;Voltage drops a lot when switch is on, capacitance not high enough?
