Version 4
SHEET 1 2980 1604
WIRE 1408 -896 1408 -944
WIRE 1664 -896 1408 -896
WIRE 2192 -896 1664 -896
WIRE 1664 -736 1664 -896
WIRE 2192 -736 2192 -896
WIRE 1488 -656 1456 -656
WIRE 1616 -656 1568 -656
WIRE 2016 -656 1984 -656
WIRE 2144 -656 2096 -656
WIRE 1664 -608 1664 -640
WIRE 1664 -608 1648 -608
WIRE 2192 -608 2192 -640
WIRE 2192 -608 2176 -608
WIRE 1664 -512 1664 -608
WIRE 1888 -512 1664 -512
WIRE 2192 -512 2192 -608
WIRE 2192 -512 1968 -512
WIRE 1664 -352 1664 -512
WIRE 2192 -352 2192 -512
WIRE 1488 -272 1456 -272
WIRE 1616 -272 1568 -272
WIRE 2016 -272 1984 -272
WIRE 2144 -272 2096 -272
WIRE 1664 -128 1664 -256
WIRE 1664 -128 1648 -128
WIRE 2192 -128 2192 -256
WIRE 2192 -128 2176 -128
WIRE 1664 -96 1664 -128
WIRE 1664 -96 1408 -96
WIRE 2192 -96 2192 -128
WIRE 2192 -96 1664 -96
WIRE 1408 -48 1408 -96
WIRE 1008 240 960 240
WIRE 1168 240 1168 208
WIRE 1168 240 1072 240
WIRE 1264 240 1168 240
WIRE 1392 240 1328 240
WIRE 1648 240 1600 240
WIRE 1808 240 1808 208
WIRE 1808 240 1712 240
WIRE 1904 240 1808 240
WIRE 2032 240 1968 240
WIRE 1248 352 1232 352
WIRE 1888 352 1872 352
WIRE 1104 368 1088 368
WIRE 1744 368 1728 368
WIRE 1248 384 1232 384
WIRE 1888 384 1872 384
WIRE 2272 384 2272 336
WIRE 2448 384 2448 336
WIRE 2624 384 2624 336
WIRE 2800 384 2800 336
WIRE 1104 400 1088 400
WIRE 1744 400 1728 400
WIRE 1248 416 1232 416
WIRE 1888 416 1872 416
WIRE 1104 432 1088 432
WIRE 1744 432 1728 432
WIRE 1248 448 1232 448
WIRE 1888 448 1872 448
WIRE 1104 464 1088 464
WIRE 1744 464 1728 464
WIRE 1296 480 1232 480
WIRE 1952 480 1872 480
WIRE 1296 512 1296 480
WIRE 1952 512 1952 480
WIRE 2272 512 2272 464
WIRE 2448 512 2448 464
WIRE 2624 512 2624 464
WIRE 2800 512 2800 464
WIRE 1136 624 1104 624
WIRE 1232 624 1200 624
WIRE 1776 624 1744 624
WIRE 1872 624 1840 624
WIRE 1936 976 1936 912
WIRE 2160 976 2160 912
WIRE 2384 976 2384 912
WIRE 2624 976 2624 912
WIRE 992 992 992 928
WIRE 1200 992 1200 928
WIRE 1936 1104 1936 1056
WIRE 2160 1104 2160 1056
WIRE 2384 1104 2384 1056
WIRE 2624 1104 2624 1056
WIRE 992 1120 992 1072
WIRE 1200 1120 1200 1072
FLAG 992 1120 0
FLAG 1200 1120 0
FLAG 992 928 V_in
FLAG 1200 928 15V0
FLAG 960 240 15V0
FLAG 1168 208 VB1
FLAG 1392 240 S1H
FLAG 1408 -48 0
FLAG 1408 -944 V_in
FLAG 2176 -608 S2H
FLAG 1648 -608 S1H
FLAG 1648 -128 S1L
FLAG 2176 -128 S2L
FLAG 1456 -656 D1H
FLAG 1984 -656 D2H
FLAG 1984 -272 D2L
FLAG 1456 -272 D1L
FLAG 1600 240 15V0
FLAG 1808 208 VB2
FLAG 2032 240 S2H
FLAG 2272 512 0
FLAG 2448 512 0
FLAG 2624 512 0
FLAG 2800 512 0
FLAG 2272 336 C1H
FLAG 2448 336 C1L
FLAG 2624 336 C2H
FLAG 2800 336 C2L
FLAG 1936 1104 0
FLAG 1088 368 15V0
FLAG 1728 368 15V0
FLAG 2160 1104 0
FLAG 2384 1104 0
FLAG 2624 1104 0
FLAG 1936 912 C1H
FLAG 2160 912 C1L
FLAG 2384 912 C2H
FLAG 2624 912 C2L
FLAG 1088 400 C1H
FLAG 1088 432 C1L
FLAG 1728 400 C2H
FLAG 1728 432 C2L
FLAG 1088 464 S1L
FLAG 1728 464 S2L
FLAG 1296 512 0
FLAG 1952 512 0
FLAG 1248 416 S1H
FLAG 1888 416 S2H
FLAG 1248 352 VB1
FLAG 1888 352 VB2
FLAG 1248 384 D1H
FLAG 1248 448 D1L
FLAG 1888 384 D2H
FLAG 1888 448 D2L
FLAG 1104 624 15V0
FLAG 1232 624 S1L
FLAG 1744 624 15V0
FLAG 1872 624 S2L
SYMBOL AutoGenerated\\AUIRS21814S 1168 416 R0
SYMATTR InstName U1
SYMBOL cap 1328 224 R90
WINDOW 0 0 32 VBottom 2
WINDOW 3 32 32 VTop 2
SYMATTR InstName C1
SYMATTR Value 200n
SYMBOL diode 1008 256 R270
WINDOW 0 32 32 VTop 2
WINDOW 3 0 32 VBottom 2
SYMATTR InstName D1
SYMBOL voltage 992 976 R0
WINDOW 123 0 0 Left 0
WINDOW 39 0 0 Left 0
SYMATTR InstName V1
SYMATTR Value 50
SYMBOL voltage 1200 976 R0
WINDOW 123 0 0 Left 0
WINDOW 39 0 0 Left 0
SYMATTR InstName V2
SYMATTR Value 15
SYMBOL nmos 1616 -736 R0
SYMATTR InstName M1
SYMATTR Value Si7540DP_N
SYMBOL nmos 2144 -736 R0
SYMATTR InstName M2
SYMATTR Value Si7540DP_N
SYMBOL nmos 1616 -352 R0
SYMATTR InstName M3
SYMATTR Value Si7540DP_N
SYMBOL nmos 2144 -352 R0
SYMATTR InstName M4
SYMATTR Value Si7540DP_N
SYMBOL res 1584 -672 R90
WINDOW 0 0 56 VBottom 2
WINDOW 3 32 56 VTop 2
SYMATTR InstName R1
SYMATTR Value 56
SYMBOL res 2112 -672 R90
WINDOW 0 0 56 VBottom 2
WINDOW 3 32 56 VTop 2
SYMATTR InstName R2
SYMATTR Value 56
SYMBOL res 1584 -288 R90
WINDOW 0 0 56 VBottom 2
WINDOW 3 32 56 VTop 2
SYMATTR InstName R3
SYMATTR Value 56
SYMBOL res 2112 -288 R90
WINDOW 0 0 56 VBottom 2
WINDOW 3 32 56 VTop 2
SYMATTR InstName R4
SYMATTR Value 56
SYMBOL cap 1968 224 R90
WINDOW 0 0 32 VBottom 2
WINDOW 3 32 32 VTop 2
SYMATTR InstName C2
SYMATTR Value 200n
SYMBOL diode 1648 256 R270
WINDOW 0 32 32 VTop 2
WINDOW 3 0 32 VBottom 2
SYMATTR InstName D2
SYMBOL res 2256 368 R0
SYMATTR InstName R5
SYMATTR Value 56
SYMBOL res 2432 368 R0
SYMATTR InstName R6
SYMATTR Value 56
SYMBOL res 2608 368 R0
SYMATTR InstName R7
SYMATTR Value 56
SYMBOL res 2784 368 R0
SYMATTR InstName R8
SYMATTR Value 56
SYMBOL voltage 1936 960 R0
WINDOW 3 -77 -105 VRight 2
WINDOW 123 0 0 Left 0
WINDOW 39 0 0 Left 0
SYMATTR Value PULSE(0 5 0 1p 1p 2.5u 10u 100)
SYMATTR InstName V3
SYMBOL res 1984 -528 R90
WINDOW 0 0 56 VBottom 2
WINDOW 3 32 56 VTop 2
SYMATTR InstName RL
SYMATTR Value 100
SYMBOL AutoGenerated\\AUIRS21814S 1808 416 R0
SYMATTR InstName U2
SYMBOL voltage 2160 960 R0
WINDOW 3 -77 -105 VRight 2
WINDOW 123 0 0 Left 0
WINDOW 39 0 0 Left 0
SYMATTR Value PULSE(0 5 2.5u 1p 1p 5u 10u 100)
SYMATTR InstName V4
SYMBOL voltage 2384 960 R0
WINDOW 3 -77 -105 VRight 2
WINDOW 123 0 0 Left 0
WINDOW 39 0 0 Left 0
SYMATTR Value PULSE(0 5 5u 1p 1p 5u 10u 100)
SYMATTR InstName V5
SYMBOL voltage 2624 960 R0
WINDOW 3 -77 -105 VRight 2
WINDOW 123 0 0 Left 0
WINDOW 39 0 0 Left 0
SYMATTR Value PULSE(0 5 0 1p 1p 1.5u 10u 100)
SYMATTR InstName V6
SYMBOL cap 1200 608 R90
WINDOW 0 0 32 VBottom 2
WINDOW 3 32 32 VTop 2
SYMATTR InstName C3
SYMATTR Value 100n
SYMBOL cap 1840 608 R90
WINDOW 0 0 32 VBottom 2
WINDOW 3 32 32 VTop 2
SYMATTR InstName C4
SYMATTR Value 100n
TEXT 864 -1160 Left 2 ;H-bridge DC-AC converter f = 100 kHz
TEXT 872 120 Left 2 ;MOSFET drivers
TEXT 848 792 Left 2 ;Source voltages
TEXT 1656 800 Left 2 ;Simulated PWM from microcontroller
TEXT 824 1328 Left 2 !.tran 0 50u 0 1u
LINE Normal 2976 80 832 80 2
LINE Normal 1616 1296 1616 736 2
LINE Normal 2960 736 832 736 2
RECTANGLE Normal 2960 1296 832 -1200 2
