Version 4
SHEET 1 2980 1604
WIRE 1408 -896 1408 -944
WIRE 1664 -896 1408 -896
WIRE 2192 -896 1664 -896
WIRE 1664 -736 1664 -896
WIRE 2192 -736 2192 -896
WIRE 1056 -656 960 -656
WIRE 1488 -656 1456 -656
WIRE 1616 -656 1568 -656
WIRE 2288 -656 2240 -656
WIRE 2400 -656 2368 -656
WIRE 1664 -608 1664 -640
WIRE 1664 -608 1648 -608
WIRE 2192 -608 2192 -640
WIRE 2192 -608 2176 -608
WIRE 1168 -560 1152 -560
WIRE 2768 -560 2752 -560
WIRE 960 -544 960 -656
WIRE 960 -544 912 -544
WIRE 1024 -544 960 -544
WIRE 2624 -544 2608 -544
WIRE 1168 -528 1152 -528
WIRE 2768 -528 2752 -528
WIRE 1024 -512 1008 -512
WIRE 2624 -512 2608 -512
WIRE 1168 -496 1152 -496
WIRE 1664 -496 1664 -608
WIRE 1888 -496 1664 -496
WIRE 2192 -496 2192 -608
WIRE 2192 -496 1968 -496
WIRE 2768 -496 2752 -496
WIRE 1024 -480 1008 -480
WIRE 2624 -480 2608 -480
WIRE 1168 -464 1152 -464
WIRE 2768 -464 2752 -464
WIRE 1024 -448 1008 -448
WIRE 2624 -448 2608 -448
WIRE 1664 -352 1664 -496
WIRE 2192 -352 2192 -496
WIRE 1488 -272 1456 -272
WIRE 1616 -272 1568 -272
WIRE 2288 -272 2240 -272
WIRE 2400 -272 2368 -272
WIRE 1664 -128 1664 -256
WIRE 1664 -128 1648 -128
WIRE 2192 -128 2192 -256
WIRE 2192 -128 2176 -128
WIRE 1664 -96 1664 -128
WIRE 1664 -96 1408 -96
WIRE 2192 -96 2192 -128
WIRE 2192 -96 1664 -96
WIRE 1408 -48 1408 -96
WIRE 1936 896 1888 896
WIRE 2528 896 2480 896
WIRE 1888 944 1888 896
WIRE 1888 944 1808 944
WIRE 2480 944 2480 896
WIRE 2480 944 2400 944
WIRE 992 992 992 928
WIRE 1200 992 1200 928
WIRE 1888 992 1888 944
WIRE 1936 992 1888 992
WIRE 2480 992 2480 944
WIRE 2528 992 2480 992
WIRE 1808 1008 1808 944
WIRE 2400 1008 2400 944
WIRE 992 1120 992 1072
WIRE 1200 1120 1200 1072
WIRE 1808 1136 1808 1088
WIRE 2400 1136 2400 1088
FLAG 992 1120 0
FLAG 1200 1120 0
FLAG 992 928 V_in
FLAG 1200 928 Vcc
FLAG 1408 -48 0
FLAG 1408 -944 V_in
FLAG 2176 -608 S2H
FLAG 1648 -608 S1H
FLAG 1648 -128 S1L
FLAG 2176 -128 S2L
FLAG 1456 -656 D1H
FLAG 2400 -656 D2H
FLAG 2400 -272 D2L
FLAG 1456 -272 D1L
FLAG 1808 1136 0
FLAG 912 -544 Vcc
FLAG 2608 -544 Vcc
FLAG 1008 -512 C1H
FLAG 1008 -480 C1L
FLAG 2608 -512 C2H
FLAG 2608 -480 C2L
FLAG 1008 -448 S1L
FLAG 2608 -448 S2L
FLAG 1168 -496 S1H
FLAG 2768 -496 S2H
FLAG 1168 -560 VB1
FLAG 2768 -560 VB2
FLAG 1168 -528 D1H
FLAG 1168 -464 D1L
FLAG 2768 -528 D2H
FLAG 2768 -464 D2L
FLAG 1936 896 C1H
FLAG 2000 992 C1L
FLAG 2400 1136 0
FLAG 2528 896 C2H
FLAG 2592 992 C2L
FLAG 1664 -496 LHS
FLAG 2192 -496 RHS
SYMBOL AUIRS21814S 1088 -496 R0
SYMATTR InstName U1
SYMBOL voltage 992 976 R0
WINDOW 123 0 0 Left 0
WINDOW 39 0 0 Left 0
SYMATTR InstName V1
SYMATTR Value 50
SYMBOL voltage 1200 976 R0
WINDOW 123 0 0 Left 0
WINDOW 39 0 0 Left 0
SYMATTR InstName V2
SYMATTR Value 20
SYMBOL nmos 1616 -736 R0
SYMATTR InstName M1
SYMATTR Value IPB025N10N3
SYMBOL res 1584 -672 R90
WINDOW 0 0 56 VBottom 2
WINDOW 3 32 56 VTop 2
SYMATTR InstName R1
SYMATTR Value 100
SYMBOL res 2272 -672 M90
WINDOW 0 0 56 VBottom 2
WINDOW 3 32 56 VTop 2
SYMATTR InstName R2
SYMATTR Value 100
SYMBOL res 1584 -288 R90
WINDOW 0 0 56 VBottom 2
WINDOW 3 32 56 VTop 2
SYMATTR InstName R3
SYMATTR Value 100
SYMBOL res 2272 -288 M90
WINDOW 0 0 56 VBottom 2
WINDOW 3 32 56 VTop 2
SYMATTR InstName R4
SYMATTR Value 100
SYMBOL voltage 1808 992 R0
WINDOW 3 -77 -105 VRight 2
WINDOW 123 0 0 Left 0
WINDOW 39 0 0 Left 0
SYMATTR Value PULSE(0 5 0 1p 1p 4.9u 10u 20)
SYMATTR InstName V3
SYMBOL AUIRS21814S 2688 -496 R0
SYMATTR InstName U2
SYMBOL Digital\\inv 1936 928 R0
WINDOW 3 -1 108 Left 2
SYMATTR Value Vhigh=5V
SYMATTR InstName A1
SYMBOL voltage 2400 992 R0
WINDOW 3 -77 -105 VRight 2
WINDOW 123 0 0 Left 0
WINDOW 39 0 0 Left 0
SYMATTR Value PULSE(0 5 5u 1p 1p 4.9u 10u 20)
SYMATTR InstName V4
SYMBOL Digital\\inv 2528 928 R0
WINDOW 3 -1 108 Left 2
SYMATTR Value Vhigh=5V
SYMATTR InstName A2
SYMBOL nmos 2240 -736 M0
SYMATTR InstName M2
SYMATTR Value IPB025N10N3
SYMBOL nmos 1616 -352 R0
SYMATTR InstName M3
SYMATTR Value IPB025N10N3
SYMBOL nmos 2240 -352 M0
SYMATTR InstName M4
SYMATTR Value IPB025N10N3
SYMBOL res 1984 -512 R90
WINDOW 0 0 56 VBottom 2
WINDOW 3 32 56 VTop 2
SYMATTR InstName R9
SYMATTR Value 100
SYMBOL diode 1056 -640 R270
WINDOW 0 32 32 VTop 2
WINDOW 3 0 32 VBottom 2
SYMATTR InstName D1
TEXT 864 -1160 Left 2 ;H-bridge DC-AC converter f = 100 kHz
TEXT 872 120 Left 2 ;MOSFET drivers
TEXT 848 792 Left 2 ;Source voltages
TEXT 1656 800 Left 2 ;Simulated PWM from microcontroller
TEXT 824 1328 Left 2 !.tran 0 50u 5u 1u
TEXT 1816 -968 Left 2 ;Vds = 100V Ron = 0.036 Ohm\nIg = 1A
LINE Normal 2976 80 832 80 2
LINE Normal 1616 1296 1616 736 2
LINE Normal 2960 736 832 736 2
RECTANGLE Normal 2960 1296 832 -1200 2
