Version 4
SHEET 1 1092 680
WIRE 544 16 432 16
WIRE 560 16 544 16
WIRE 672 16 640 16
WIRE 816 16 672 16
WIRE 432 48 432 16
WIRE 544 48 544 16
WIRE -112 80 -256 80
WIRE 224 80 48 80
WIRE 352 80 224 80
WIRE -256 112 -256 80
WIRE -112 112 -112 80
WIRE 48 112 48 80
WIRE 224 128 224 80
WIRE 672 128 672 16
WIRE 816 128 816 16
WIRE 352 160 352 80
WIRE 432 160 432 112
WIRE 432 160 352 160
WIRE 544 192 544 112
WIRE 544 192 352 192
WIRE 432 208 432 160
WIRE 544 208 544 192
WIRE -256 240 -256 192
WIRE -176 240 -256 240
WIRE -112 240 -112 192
WIRE -112 240 -176 240
WIRE 48 240 48 192
WIRE 224 240 224 192
WIRE 224 240 48 240
WIRE 352 240 352 192
WIRE 352 240 224 240
WIRE -176 272 -176 240
WIRE 432 304 432 272
WIRE 544 304 544 272
WIRE 544 304 432 304
WIRE 608 304 544 304
WIRE 672 304 672 192
WIRE 672 304 608 304
WIRE 816 304 816 208
WIRE 816 304 672 304
WIRE 608 336 608 304
FLAG -176 272 0
FLAG 608 336 0
FLAG 352 80 Vac1
FLAG 352 192 Vac2
FLAG 816 16 Vout
SYMBOL cap 208 128 R0
SYMATTR InstName Cst
SYMATTR Value 187.2n
SYMBOL current -256 112 R0
WINDOW 3 3 80 Invisible 2
WINDOW 123 0 0 Left 0
WINDOW 39 0 0 Left 0
SYMATTR InstName I1
SYMATTR Value SINE(0 14.14 85k)
SYMBOL ind2 64 208 R180
WINDOW 0 40 53 Left 2
WINDOW 3 39 29 Left 2
SYMATTR InstName Lst
SYMATTR Value 18.73µ
SYMBOL ind2 -128 208 M180
WINDOW 0 -32 55 Left 2
WINDOW 3 -74 28 Left 2
SYMATTR InstName Lpt
SYMATTR Value 18.73µ
SYMBOL diode 448 272 R180
WINDOW 0 24 64 Left 2
WINDOW 3 24 0 Left 2
SYMATTR InstName D2
SYMATTR Value ID
SYMBOL diode 560 272 R180
WINDOW 0 24 64 Left 2
WINDOW 3 24 0 Left 2
SYMATTR InstName D3
SYMATTR Value ID
SYMBOL diode 560 112 R180
WINDOW 0 24 64 Left 2
WINDOW 3 24 0 Left 2
SYMATTR InstName D4
SYMATTR Value ID
SYMBOL diode 448 112 R180
WINDOW 0 24 64 Left 2
WINDOW 3 24 0 Left 2
SYMATTR InstName D1
SYMATTR Value ID
SYMBOL cap 656 128 R0
SYMATTR InstName C1
SYMATTR Value 1µ
SYMBOL res 800 112 R0
SYMATTR InstName R1
SYMATTR Value 50
SYMBOL ind2 544 32 R270
WINDOW 0 32 56 VTop 2
WINDOW 3 4 56 VBottom 2
SYMATTR InstName L1
SYMATTR Value 400µ
TEXT -112 56 Left 2 !K1 Lpt Lst 0.1
TEXT -266 0 Left 2 !.tran 0 5m 1m 0.1u
TEXT -264 24 Left 2 !.model ID D(Ron=0 Roff=1Meg Vfwd=0 Vrev=1.2kv)
