Version 4
SHEET 1 1824 952
WIRE 544 16 432 16
WIRE 560 16 544 16
WIRE 672 16 640 16
WIRE 816 16 672 16
WIRE 432 48 432 16
WIRE 544 48 544 16
WIRE -112 80 -256 80
WIRE 224 80 48 80
WIRE 352 80 224 80
WIRE -256 112 -256 80
WIRE -112 112 -112 80
WIRE 48 112 48 80
WIRE 224 128 224 80
WIRE 672 128 672 16
WIRE 816 128 816 16
WIRE 352 160 352 80
WIRE 432 160 432 112
WIRE 432 160 352 160
WIRE 544 192 544 112
WIRE 544 192 352 192
WIRE 432 208 432 160
WIRE 544 208 544 192
WIRE -256 240 -256 192
WIRE -176 240 -256 240
WIRE -112 240 -112 192
WIRE -112 240 -176 240
WIRE 48 240 48 192
WIRE 224 240 224 192
WIRE 224 240 48 240
WIRE 352 240 352 192
WIRE 352 240 224 240
WIRE -176 272 -176 240
WIRE 432 304 432 272
WIRE 544 304 544 272
WIRE 544 304 432 304
WIRE 608 304 544 304
WIRE 672 304 672 192
WIRE 672 304 608 304
WIRE 816 304 816 208
WIRE 816 304 672 304
WIRE 608 336 608 304
WIRE 544 416 432 416
WIRE 640 416 544 416
WIRE 752 416 720 416
WIRE 784 416 752 416
WIRE 896 416 848 416
WIRE 1040 416 896 416
WIRE 432 448 432 416
WIRE 544 448 544 416
WIRE -112 480 -256 480
WIRE 224 480 48 480
WIRE 352 480 224 480
WIRE -256 512 -256 480
WIRE -112 512 -112 480
WIRE 48 512 48 480
WIRE 752 512 752 416
WIRE 224 528 224 480
WIRE 816 528 784 528
WIRE 896 528 896 416
WIRE 1040 528 1040 416
WIRE 352 560 352 480
WIRE 432 560 432 512
WIRE 432 560 352 560
WIRE 544 592 544 512
WIRE 544 592 352 592
WIRE 704 592 672 592
WIRE 432 608 432 560
WIRE 544 608 544 592
WIRE -256 640 -256 592
WIRE -176 640 -256 640
WIRE -112 640 -112 592
WIRE -112 640 -176 640
WIRE 48 640 48 592
WIRE 224 640 224 592
WIRE 224 640 48 640
WIRE 352 640 352 592
WIRE 352 640 224 640
WIRE -176 672 -176 640
WIRE 432 704 432 672
WIRE 544 704 544 672
WIRE 544 704 432 704
WIRE 608 704 544 704
WIRE 752 704 752 624
WIRE 752 704 608 704
WIRE 896 704 896 592
WIRE 896 704 752 704
WIRE 1040 704 1040 608
WIRE 1040 704 896 704
WIRE 608 736 608 704
FLAG -176 272 0
FLAG 608 336 0
FLAG 352 80 Vac1
FLAG 352 192 Vac2
FLAG 816 16 Vout
FLAG -176 672 0
FLAG 608 736 0
FLAG 1040 416 Vout
FLAG 176 864 0
FLAG 48 864 0
FLAG 48 704 G1
FLAG 672 592 G1
FLAG 816 528 Tjt
FLAG 176 784 Tjt
SYMBOL cap 208 128 R0
SYMATTR InstName Cst
SYMATTR Value 187.2n
SYMBOL current -256 112 R0
WINDOW 3 3 80 Invisible 2
WINDOW 123 0 0 Left 0
WINDOW 39 0 0 Left 0
SYMATTR Value SINE(0 14.14 85k)
SYMATTR InstName I1
SYMBOL ind2 64 208 R180
WINDOW 0 40 53 Left 2
WINDOW 3 39 29 Left 2
SYMATTR InstName Lst
SYMATTR Value 18.73µ
SYMBOL ind2 -128 208 M180
WINDOW 0 -32 55 Left 2
WINDOW 3 -74 28 Left 2
SYMATTR InstName Lpt
SYMATTR Value 18.73µ
SYMBOL diode 448 272 R180
WINDOW 0 24 64 Left 2
WINDOW 3 24 0 Left 2
SYMATTR InstName D2
SYMATTR Value ID
SYMBOL diode 560 272 R180
WINDOW 0 24 64 Left 2
WINDOW 3 24 0 Left 2
SYMATTR InstName D3
SYMATTR Value ID
SYMBOL diode 560 112 R180
WINDOW 0 24 64 Left 2
WINDOW 3 24 0 Left 2
SYMATTR InstName D4
SYMATTR Value ID
SYMBOL diode 448 112 R180
WINDOW 0 24 64 Left 2
WINDOW 3 24 0 Left 2
SYMATTR InstName D1
SYMATTR Value ID
SYMBOL cap 656 128 R0
SYMATTR InstName C1
SYMATTR Value 1µ
SYMBOL res 800 112 R0
SYMATTR InstName R1
SYMATTR Value 50
SYMBOL ind2 544 32 R270
WINDOW 0 32 56 VTop 2
WINDOW 3 4 56 VBottom 2
SYMATTR InstName L1
SYMATTR Value 400µ
SYMBOL cap 208 528 R0
SYMATTR InstName Cst1
SYMATTR Value 187.2n
SYMBOL ind2 64 608 R180
WINDOW 0 40 53 Left 2
WINDOW 3 39 29 Left 2
SYMATTR InstName Lst1
SYMATTR Value 18.73µ
SYMBOL ind2 -128 608 M180
WINDOW 0 -60 54 Left 2
WINDOW 3 -74 28 Left 2
SYMATTR InstName Lpt1
SYMATTR Value 18.73µ
SYMBOL diode 448 672 R180
WINDOW 0 24 64 Left 2
WINDOW 3 24 0 Left 2
SYMATTR InstName D5
SYMATTR Value ID
SYMBOL diode 560 672 R180
WINDOW 0 24 64 Left 2
WINDOW 3 24 0 Left 2
SYMATTR InstName D6
SYMATTR Value ID
SYMBOL diode 560 512 R180
WINDOW 0 24 64 Left 2
WINDOW 3 24 0 Left 2
SYMATTR InstName D7
SYMATTR Value ID
SYMBOL diode 448 512 R180
WINDOW 0 24 64 Left 2
WINDOW 3 24 0 Left 2
SYMATTR InstName D8
SYMATTR Value ID
SYMBOL cap 880 528 R0
SYMATTR InstName Cdc
SYMATTR Value 10µ
SYMBOL res 1024 512 R0
SYMATTR InstName R2
SYMATTR Value 182
SYMBOL ind2 624 432 R270
WINDOW 0 32 56 VTop 2
WINDOW 3 4 56 VBottom 2
SYMATTR InstName Ldc
SYMATTR Value 1m
SYMBOL current -256 512 R0
WINDOW 3 3 80 Invisible 2
WINDOW 123 0 0 Left 0
WINDOW 39 0 0 Left 0
SYMATTR Value SINE(0 70.71 85k)
SYMATTR InstName I2
SYMBOL diode 784 432 R270
WINDOW 0 32 32 VTop 2
WINDOW 3 0 32 VBottom 2
SYMATTR InstName D9
SYMATTR Value ID
SYMBOL voltage 48 768 R0
WINDOW 3 24 96 Invisible 2
WINDOW 123 0 0 Left 0
WINDOW 39 0 0 Left 0
SYMATTR Value PULSE(0 12 0 0 0 0.1175u 0.235u)
SYMATTR InstName V1
SYMBOL voltage 176 768 R0
WINDOW 123 0 0 Left 0
WINDOW 39 0 0 Left 0
SYMATTR InstName V2
SYMATTR Value 25
SYMBOL res 32 688 R0
SYMATTR InstName R3
SYMATTR Value 2.5
SYMBOL WolfspeedMOSFET\\nmos_TO247_3L 704 512 R0
WINDOW 3 -123 107 Left 2
SYMATTR Value C2M0025120D
SYMATTR InstName U1
TEXT -112 56 Left 2 !K1 Lpt Lst 0.1
TEXT -264 0 Left 2 !.tran 0 5m 1m 0.1u
TEXT -264 24 Left 2 ;.model ID D(Ron=0 Roff=1Meg Vfwd=0 Vrev=1.2kv)
TEXT -280 -56 Left 2 ;Slide 72
TEXT -112 456 Left 2 !K2 Lpt1 Lst1 0.1
TEXT -264 400 Left 2 ;.tran 0 100m 1m 0.1u
TEXT -264 424 Left 2 !.model ID D(Ron=0 Roff=1Meg Vfwd=0 Vrev=1.2kv)
TEXT -256 728 Left 2 !.ic V(Vout)=500
TEXT -272 824 Left 2 !.lib "C2M0025120D.lib"
RECTANGLE Normal 896 368 -288 -32 2
